iidm/iidm-xml-converter/src/test/resources/V1_1/regulatingTerminal.xml
<?xml version="1.0" encoding="UTF-8"?>
<iidm:network xmlns:iidm="http://www.itesla_project.eu/schema/iidm/1_1" id="three-windings-transformer" caseDate="2018-03-05T13:30:30.486+01:00" forecastDistance="0" sourceFormat="test">
    <iidm:substation id="SUBSTATION" country="FR">
        <iidm:voltageLevel id="VL_132" nominalV="132.0" lowVoltageLimit="118.8" highVoltageLimit="145.2" topologyKind="BUS_BREAKER">
            <iidm:busBreakerTopology>
                <iidm:bus id="BUS_132" v="133.584" angle="-9.62"/>
            </iidm:busBreakerTopology>
            <iidm:generator id="GEN" energySource="OTHER" minP="-9999.99" maxP="9999.99" voltageRegulatorOn="true" targetP="607.0" targetV="24.5" targetQ="301.0" bus="BUS_132" connectableBus="BUS_132">
                <iidm:regulatingTerminal id="3WT" side="THREE"/>
                <iidm:minMaxReactiveLimits minQ="-9999.99" maxQ="9999.99"/>
            </iidm:generator>
        </iidm:voltageLevel>
        <iidm:voltageLevel id="VL_33" nominalV="33.0" lowVoltageLimit="29.7" highVoltageLimit="36.3" topologyKind="BUS_BREAKER">
            <iidm:busBreakerTopology>
                <iidm:bus id="BUS_33" v="34.881" angle="-15.24"/>
            </iidm:busBreakerTopology>
            <iidm:load id="LOAD_33" loadType="UNDEFINED" p0="11.2" q0="7.5" bus="BUS_33" connectableBus="BUS_33" p="11.2" q="7.5"/>
        </iidm:voltageLevel>
        <iidm:voltageLevel id="VL_11" nominalV="11.0" lowVoltageLimit="9.9" highVoltageLimit="12.1" topologyKind="BUS_BREAKER">
            <iidm:busBreakerTopology>
                <iidm:bus id="BUS_11" v="11.781" angle="-15.24"/>
            </iidm:busBreakerTopology>
            <iidm:load id="LOAD_11" loadType="UNDEFINED" p0="0.0" q0="-10.6" bus="BUS_11" connectableBus="BUS_11" p="0.0" q="-10.6"/>
        </iidm:voltageLevel>
        <iidm:threeWindingsTransformer id="3WT" r1="17.424" x1="1.7424" g1="0.00573921028466483" b1="5.73921028466483E-4" ratedU1="132.0" r2="1.089" x2="0.1089" ratedU2="33.0" r3="0.121" x3="0.0121" ratedU3="11.0" bus1="BUS_132" connectableBus1="BUS_132" voltageLevelId1="VL_132" bus2="BUS_33" connectableBus2="BUS_33" voltageLevelId2="VL_33" bus3="BUS_11" connectableBus3="BUS_11" voltageLevelId3="VL_11"/>
    </iidm:substation>
</iidm:network>
